Circuit: * C:\Users\shijie\Desktop\301-pro\ENGR301_LTSpice\potentiometer.asc

.OP point found by inspection.

Date: Thu Jul 30 15:30:29 2015
Total elapsed time: 0.111 seconds.

tnom = 27
temp = 27
method = modified trap
totiter = 714
traniter = 714
tranpoints = 358
accept = 282
rejected = 76
matrix size = 4
fillins = 0
solver = Normal
Matrix Compiler1: off  [0.1]/0.1/0.1
Matrix Compiler2: 248 bytes object code size  0.1/0.3/[0.1]


